*Heading
** Job name: ball_125mm_latent Model name: Ball_125mm
** Generated by: Abaqus/CAE 2016
*Preprint, echo=NO, model=NO, history=NO, contact=NO
**
** PARTS
**
*Part, name=Ball
*Node
      1,           0.,           0.,      -0.0625
      2,           0.,           0.,           0.
      3,           0.,      -0.0625,           0.
      4,      -0.0625,           0.,           0.
      5,           0.,           0.,       0.0625
      6,       0.0625,           0.,           0.
      7,           0.,       0.0625,           0.
      8,           0., -0.0623073317, -0.00490369368
      9,           0., -0.0617305227, -0.00977715384
     10,           0., -0.0607731193, -0.0145903351
     11,           0., -0.0594410338, -0.0193135627
     12,           0., -0.057742469, -0.0239177141
     13,           0., -0.0556879081, -0.0283744056
     14,           0., -0.0532900095, -0.0326561593
     15,           0., -0.0505635627, -0.0367365777
     16,           0., -0.0475253724, -0.0405905023
     17,           0., -0.0441941731, -0.0441941731
     18,           0., -0.0405905023, -0.0475253724
     19,           0., -0.0367365777, -0.0505635627
     20,           0., -0.0326561593, -0.0532900095
** ... 16447 like lines cut
*Element, type=DC3D8
   1,  584,  585, 4459, 4180,   17,   18,  309,  308
   2,  585,  586, 4460, 4459,   18,   19,  310,  309
   3,  586,  587, 4461, 4460,   19,   20,  311,  310
   4,  587,  588, 4462, 4461,   20,   21,  312,  311
   5,  588,  589, 4463, 4462,   21,   22,  313,  312
   6,  589,  590, 4464, 4463,   22,   23,  314,  313
   7,  590,  591, 4465, 4464,   23,   24,  315,  314
   8,  591,  592, 4466, 4465,   24,   25,  316,  315
   9,  592,  593, 4467, 4466,   25,   26,  317,  316
  10,  593,   39,  446, 4467,   26,    1,   27,  317
  11, 4180, 4459, 4468, 4181,  308,  309,  319,  318
  12, 4459, 4460, 4469, 4468,  309,  310,  320,  319
  13, 4460, 4461, 4470, 4469,  310,  311,  321,  320
  14, 4461, 4462, 4471, 4470,  311,  312,  322,  321
  15, 4462, 4463, 4472, 4471,  312,  313,  323,  322
  16, 4463, 4464, 4473, 4472,  313,  314,  324,  323
  17, 4464, 4465, 4474, 4473,  314,  315,  325,  324
  18, 4465, 4466, 4475, 4474,  315,  316,  326,  325
  19, 4466, 4467, 4476, 4475,  316,  317,  327,  326
  20, 4467,  446,  447, 4476,  317,   27,   28,  327
** ... 15180 like lines cut
*Nset, nset=ALL, generate
     1,  16467,      1
*Elset, elset=ALL, generate
     1,  15200,      1
*Nset, nset=InnerNode
 2,
*Nset, nset=OuterNode
 6,
*Elset, elset=_Outer_S3, internal
     1,     2,     3,     4,     5,     6,     7,     8,     9,    10,    31,    32,    33,    34,    35,    36
    37,    38,    39,    40,    61,    62,    63,    64,    65,    66,    67,    68,    69,    70,    91,    92
    93,    94,    95,    96,    97,    98,    99,   100,   121,   122,   123,   124,   125,   126,   127,   128
   129,   130,   151,   152,   153,   154,   155,   156,   157,   158,   159,   160,   181,   182,   183,   184
   185,   186,   187,   188,   189,   190,   211,   212,   213,   214,   215,   216,   217,   218,   219,   220
   241,   242,   243,   244,   245,   246,   247,   248,   249,   250,   271,   272,   273,   274,   275,   276
   277,   278,   279,   280,  1601,  1602,  1603,  1604,  1605,  1606,  1607,  1608,  1609,  1610,  1631,  1632
  1633,  1634,  1635,  1636,  1637,  1638,  1639,  1640,  1661,  1662,  1663,  1664,  1665,  1666,  1667,  1668
  1669,  1670,  1691,  1692,  1693,  1694,  1695,  1696,  1697,  1698,  1699,  1700,  1721,  1722,  1723,  1724
  1725,  1726,  1727,  1728,  1729,  1730,  1751,  1752,  1753,  1754,  1755,  1756,  1757,  1758,  1759,  1760
  1781,  1782,  1783,  1784,  1785,  1786,  1787,  1788,  1789,  1790,  1811,  1812,  1813,  1814,  1815,  1816
  1817,  1818,  1819,  1820,  1841,  1842,  1843,  1844,  1845,  1846,  1847,  1848,  1849,  1850,  1871,  1872
  1873,  1874,  1875,  1876,  1877,  1878,  1879,  1880,  4801,  4802,  4803,  4804,  4805,  4806,  4807,  4808
  4809,  4810,  4831,  4832,  4833,  4834,  4835,  4836,  4837,  4838,  4839,  4840,  4861,  4862,  4863,  4864
  4865,  4866,  4867,  4868,  4869,  4870,  4891,  4892,  4893,  4894,  4895,  4896,  4897,  4898,  4899,  4900
  4921,  4922,  4923,  4924,  4925,  4926,  4927,  4928,  4929,  4930,  4951,  4952,  4953,  4954,  4955,  4956
  4957,  4958,  4959,  4960,  4981,  4982,  4983,  4984,  4985,  4986,  4987,  4988,  4989,  4990,  5011,  5012
  5013,  5014,  5015,  5016,  5017,  5018,  5019,  5020,  5041,  5042,  5043,  5044,  5045,  5046,  5047,  5048
  5049,  5050,  5071,  5072,  5073,  5074,  5075,  5076,  5077,  5078,  5079,  5080,  5401,  5402,  5403,  5404
  5405,  5406,  5407,  5408,  5409,  5410,  5431,  5432,  5433,  5434,  5435,  5436,  5437,  5438,  5439,  5440
** ... 30 like lines cut
*Elset, elset=_Outer_S4, internal
  1303,  1306,  1309,  1312,  1315,  1318,  1321,  1324,  1327,  1330,  1333,  1336,  1339,  1342,  1345,  1348
  1351,  1354,  1357,  1360,  1363,  1366,  1369,  1372,  1375,  1378,  1381,  1384,  1387,  1390,  1393,  1396
  1399,  1402,  1405,  1408,  1411,  1414,  1417,  1420,  1423,  1426,  1429,  1432,  1435,  1438,  1441,  1444
  1447,  1450,  1453,  1456,  1459,  1462,  1465,  1468,  1471,  1474,  1477,  1480,  1483,  1486,  1489,  1492
  1495,  1498,  1501,  1504,  1507,  1510,  1513,  1516,  1519,  1522,  1525,  1528,  1531,  1534,  1537,  1540
  1543,  1546,  1549,  1552,  1555,  1558,  1561,  1564,  1567,  1570,  1573,  1576,  1579,  1582,  1585,  1588
  1591,  1594,  1597,  1600,  5103,  5106,  5109,  5112,  5115,  5118,  5121,  5124,  5127,  5130,  5133,  5136
  5139,  5142,  5145,  5148,  5151,  5154,  5157,  5160,  5163,  5166,  5169,  5172,  5175,  5178,  5181,  5184
  5187,  5190,  5193,  5196,  5199,  5202,  5205,  5208,  5211,  5214,  5217,  5220,  5223,  5226,  5229,  5232
  5235,  5238,  5241,  5244,  5247,  5250,  5253,  5256,  5259,  5262,  5265,  5268,  5271,  5274,  5277,  5280
  5283,  5286,  5289,  5292,  5295,  5298,  5301,  5304,  5307,  5310,  5313,  5316,  5319,  5322,  5325,  5328
  5331,  5334,  5337,  5340,  5343,  5346,  5349,  5352,  5355,  5358,  5361,  5364,  5367,  5370,  5373,  5376
  5379,  5382,  5385,  5388,  5391,  5394,  5397,  5400,  7003,  7006,  7009,  7012,  7015,  7018,  7021,  7024
  7027,  7030,  7033,  7036,  7039,  7042,  7045,  7048,  7051,  7054,  7057,  7060,  7063,  7066,  7069,  7072
  7075,  7078,  7081,  7084,  7087,  7090,  7093,  7096,  7099,  7102,  7105,  7108,  7111,  7114,  7117,  7120
  7123,  7126,  7129,  7132,  7135,  7138,  7141,  7144,  7147,  7150,  7153,  7156,  7159,  7162,  7165,  7168
  7171,  7174,  7177,  7180,  7183,  7186,  7189,  7192,  7195,  7198,  7201,  7204,  7207,  7210,  7213,  7216
  7219,  7222,  7225,  7228,  7231,  7234,  7237,  7240,  7243,  7246,  7249,  7252,  7255,  7258,  7261,  7264
  7267,  7270,  7273,  7276,  7279,  7282,  7285,  7288,  7291,  7294,  7297,  7300, 14603, 14606, 14609, 14612
 14615, 14618, 14621, 14624, 14627, 14630, 14633, 14636, 14639, 14642, 14645, 14648, 14651, 14654, 14657, 14660
** ... 5 like lines cut
*Elset, elset=_Outer_S2, internal
  1901,  1902,  1903,  1904,  1905,  1906,  1907,  1908,  1909,  1910,  1911,  1912,  1913,  1914,  1915,  1916
  1917,  1918,  1919,  1920,  1921,  1922,  1923,  1924,  1925,  1926,  1927,  1928,  1929,  1930,  1931,  1932
  1933,  1934,  1935,  1936,  1937,  1938,  1939,  1940,  1941,  1942,  1943,  1944,  1945,  1946,  1947,  1948
  1949,  1950,  1951,  1952,  1953,  1954,  1955,  1956,  1957,  1958,  1959,  1960,  1961,  1962,  1963,  1964
  1965,  1966,  1967,  1968,  1969,  1970,  1971,  1972,  1973,  1974,  1975,  1976,  1977,  1978,  1979,  1980
  1981,  1982,  1983,  1984,  1985,  1986,  1987,  1988,  1989,  1990,  1991,  1992,  1993,  1994,  1995,  1996
  1997,  1998,  1999,  2000,  2201,  2202,  2203,  2204,  2205,  2206,  2207,  2208,  2209,  2210,  2211,  2212
  2213,  2214,  2215,  2216,  2217,  2218,  2219,  2220,  2221,  2222,  2223,  2224,  2225,  2226,  2227,  2228
  2229,  2230,  2231,  2232,  2233,  2234,  2235,  2236,  2237,  2238,  2239,  2240,  2241,  2242,  2243,  2244
  2245,  2246,  2247,  2248,  2249,  2250,  2251,  2252,  2253,  2254,  2255,  2256,  2257,  2258,  2259,  2260
  2261,  2262,  2263,  2264,  2265,  2266,  2267,  2268,  2269,  2270,  2271,  2272,  2273,  2274,  2275,  2276
  2277,  2278,  2279,  2280,  2281,  2282,  2283,  2284,  2285,  2286,  2287,  2288,  2289,  2290,  2291,  2292
  2293,  2294,  2295,  2296,  2297,  2298,  2299,  2300,  2501,  2502,  2503,  2504,  2505,  2506,  2507,  2508
  2509,  2510,  2511,  2512,  2513,  2514,  2515,  2516,  2517,  2518,  2519,  2520,  2521,  2522,  2523,  2524
  2525,  2526,  2527,  2528,  2529,  2530,  2531,  2532,  2533,  2534,  2535,  2536,  2537,  2538,  2539,  2540
  2541,  2542,  2543,  2544,  2545,  2546,  2547,  2548,  2549,  2550,  2551,  2552,  2553,  2554,  2555,  2556
  2557,  2558,  2559,  2560,  2561,  2562,  2563,  2564,  2565,  2566,  2567,  2568,  2569,  2570,  2571,  2572
  2573,  2574,  2575,  2576,  2577,  2578,  2579,  2580,  2581,  2582,  2583,  2584,  2585,  2586,  2587,  2588
  2589,  2590,  2591,  2592,  2593,  2594,  2595,  2596,  2597,  2598,  2599,  2600,  7601,  7602,  7603,  7604
  7605,  7606,  7607,  7608,  7609,  7610,  7611,  7612,  7613,  7614,  7615,  7616,  7617,  7618,  7619,  7620
** ... 55 like lines cut
*Surface, type=ELEMENT, name=Outer
_Outer_S3, S3
_Outer_S4, S4
_Outer_S2, S2
** Section: Section-1
*Solid Section, elset=ALL, material=Steel
,
*End Part
**  
**
** ASSEMBLY
**
*Assembly, name=Assembly
**  
*Instance, name=Ball-1, part=Ball
*End Instance
**  
*Nset, nset=ALL, instance=Ball-1, generate
     1,  16467,      1
*Elset, elset=ALL, instance=Ball-1, generate
     1,  15200,      1
*End Assembly
** 
** MATERIALS
** 
*Material, name=Steel
*Conductivity
 60.5,
*Density
7850.,
*Depvar
      1,
*Heat Generation
*Specific Heat
434.,
*Material, name=Steel-TempDepend
*Conductivity
 60.5,300.
 56.7,400.
  48.,600.
*Density
7850.,
*Specific Heat
434.,300.
487.,400.
559.,600.
** 
** INTERACTION PROPERTIES
** 
*Film Property, name=IntProp-1
33.
** 
** PHYSICAL CONSTANTS
** 
*Physical Constants, absolute zero=0., stefan boltzmann=5.67037e-08
** 
** PREDEFINED FIELDS
** 
** Name: Temperature   Type: Temperature
*Initial Conditions, type=TEMPERATURE
ALL, 433.15
** ----------------------------------------------------------------
** 
** STEP: Step-1
** 
*Step, name=Step-1, nlgeom=NO, inc=1000
*Heat Transfer, end=PERIOD, deltmx=1.
1., 4500., 0.045, 30., 
** 
** INTERACTIONS
** 
** Interaction: Int-1
*Sfilm
Ball-1.Outer, F, 298.15, IntProp-1
** Interaction: Int-2
*Sradiate
Ball-1.Outer, R, 298.15, 0.8
** 
** OUTPUT REQUESTS
** 
*Restart, write, frequency=0
*Monitor, dof=11, node=Ball-1.InnerNode, frequency=1
** 
** FIELD OUTPUT: F-Output-1
** 
*Output, field
*Node Output
NT, 
*Element Output, directions=YES
HFL, NFLUX, SDV, TEMP
*Radiation Output
FTEMP, RADFL
** 
** HISTORY OUTPUT: H-Output-2
** 
*Output, history
*Node Output, nset=Ball-1.InnerNode
NT, 
** 
** HISTORY OUTPUT: H-Output-3
** 
*Node Output, nset=Ball-1.OuterNode
NT, 
*End Step
